180
  -OEChem-02092506183D

 10  9  0     0  0  0  0  0  0999 V2000
    0.0003   -1.3171   -0.0002 O   0  0  0  0  0  0  0  0  0  0  0  0
    0.0000   -0.0872    0.0006 C   0  0  0  0  0  0  0  0  0  0  0  0
    1.2810    0.7024   -0.0002 C   0  0  0  0  0  0  0  0  0  0  0  0
   -1.2813    0.7019   -0.0002 C   0  0  0  0  0  0  0  0  0  0  0  0
    1.3279    1.3235   -0.8980 H   0  0  0  0  0  0  0  0  0  0  0  0
    1.3260    1.3282    0.8945 H   0  0  0  0  0  0  0  0  0  0  0  0
    2.1351    0.0196    0.0027 H   0  0  0  0  0  0  0  0  0  0  0  0
   -2.1352    0.0187    0.0027 H   0  0  0  0  0  0  0  0  0  0  0  0
   -1.3284    1.3230   -0.8980 H   0  0  0  0  0  0  0  0  0  0  0  0
   -1.3266    1.3278    0.8945 H   0  0  0  0  0  0  0  0  0  0  0  0
  1  2  2  0  0  0  0
  2  3  1  0  0  0  0
  2  4  1  0  0  0  0
  3  5  1  0  0  0  0
  3  6  1  0  0  0  0
  3  7  1  0  0  0  0
  4  8  1  0  0  0  0
  4  9  1  0  0  0  0
  4 10  1  0  0  0  0
M  END

